/*--------------------------------*- C++ -*----------------------------------*\
| =========                 |                                                 |
| \\      /  F ield         | OpenFOAM: The Open Source CFD Toolbox           |
|  \\    /   O peration     | Version:  3.0.1                                 |
|   \\  /    A nd           | Web:      www.OpenFOAM.org                      |
|    \\/     M anipulation  |                                                 |
\*---------------------------------------------------------------------------*/
FoamFile
{
    version     2.0;
    format      ascii;
    class       dictionary;
    location    "system";
    object      controlDict;
}
// * * * * * * * * * * * * * * * * * * * * * * * * * * * * * * * * * * * * * //

application     Flint_multiphaseEulerFoamD;

startFrom       latestTime;

startTime       0;

stopAt          endTime;

endTime         6e-4;

deltaT          1.0e-8;

writeControl    adjustableRunTime;

writeInterval   3e-05;

purgeWrite      0;

writeFormat     ascii;

writePrecision  10;

writeCompression off;

timeFormat      general;

timePrecision   10;

runTimeModifiable yes;

adjustTimeStep  yes;

maxCo           0.1;//0.1;
maxAlphaCo      0.1;

maxDeltaT       2e-6;

functions
{
    profiling
    {
        type            profiling;
        libs            (utilityFunctionObjects);
    }
}

// ************************************************************************* //
