/*--------------------------------*- C++ -*----------------------------------*\
| =========                 |                                                 |
| \\      /  F ield         | OpenFOAM: The Open Source CFD Toolbox           |
|  \\    /   O peration     | Version:  3.10                                 |
|   \\  /    A nd           | Web:      www.OpenFOAM.org                      |
|    \\/     M anipulation  |                                                 |
\*---------------------------------------------------------------------------*/
FoamFile
{
    version     2.0;
    format      ascii;
    class       dictionary;
    object      blockMeshDict;
}
// * * * * * * * * * * * * * * * * * * * * * * * * * * * * * * * * * * * * * //

convertToMeters 0.001;

vertices
(


    (-0.15 0 0)//0
    (0.15 0 0)//1
    (0.15 0.3 0)//2
    (-0.15 0.3 0)//3
    (-0.15 0 1)//4
    (0.15 0 1)//5
    (0.15 0.3 1)//6
    (-0.15 0.3 1)//7



);
blocks
(
    hex (0 1 2 3 4 5 6 7) (30 30 100) simpleGrading (1 1 1)		//REGION 1



);

edges
(
);

boundary
(

    lowerWall
    {
        type wall;
        faces
        (
            (3 7 6 2)

        );
    }

    atmosphere
    {
        type patch;
        faces
        (
            (1 5 4 0)
        );
    }
    rightWall
    {
        type patch;
        faces
        (
            (1 2 6 5)
	    
        );
    }
    leftWall
    {
        type patch;
        faces
        (
            (0 4 7 3)
        );
    }
    frontAndBack
    {
        type patch;
        faces
        (
            (0 3 2 1)
	    (5 6 7 4)
        );
    }
    /*
        internal
    {
        type internal;
        faces ();
    }
   */ 
    
);

mergePatchPairs
(


);

// ************************************************************************* //
